**$ENCRYPTED_LIB
**$INTERFACE
*$
* TLV75801P
*****************************************************************************
* (C) Copyright 2018 Texas Instruments Incorporated. All rights reserved.
*****************************************************************************
** This model is designed as an aid for customers of Texas Instruments.
** TI and its licensors and suppliers make no warranties, either expressed
** or implied, with respect to this model, including the warranties of
** merchantability or fitness for a particular purpose. The model is
** provided solely on an "as is" basis. The entire risk as to its quality
** and performance is with the customer.
*****************************************************************************
*
** Released by: WEBENCH Design Center, Texas Instruments Inc.
* Part: TLV75801P
* Date: 24OCT2018
* Model Type: Transient
* Simulator: PSPICE
* Simulator Version: 16.2.0.s003
* EVM Order Number:
* EVM Users Guide:
* Datasheet:
*
* Model Version: Final 1.00
*
*****************************************************************************
*
* Updates:
*
* Final 1.00
* Release to Web
*
*****************************************************************************
* Model Usage Notes:
*
* 1. The following features have been modeled
*      a. Start-up behaviour is modeled
*      b. Line transients 
*      c. Load transients
*      d. Current Limit and current foldback is modeled
*      e. PSRR is modeled only till 1st pole and 1st Zero (Model limitation)
* 2. Quiescent current, noise characteristics and temperature effects are not modeled
*****************************************************************************
*$
.SUBCKT TLV75801P_TRANS EN FB GND VIN VOUT  
$CDNENCSTART
eee8c5c7a2bc4b01f045f303678664e7916da0bae22e8cb0bba041dd67c69ce448ea70148a9ac1670c8926c1ac5057c8ccfcd77bf87ca9dc31f1e0a88cf11194
c43ca65fb3926f3b26c880f485e2ca3443e01674667ecbfe480b083f93abc69fff52696b9148915bd71b3c20a6a3ba7bf1874b03c1cd170d55b192f958c15073
b8b56863f55c875e94fbbbfac28a5c5cb686a80b117e185d78b54ce720b1001e5702f8045be5988d48c4805203a5c137bdf1f1336938f33c5173c8d71b9c048c
0abb8c42c110d7c54597b28a3abd9880aa1f7ec0191a1052f6698c64fe3c5faad2bbd7e847d638e1e776e9b255bda08cbfd81d659a09e4b30c138f656e983247
31bbfa71d5efb6fe102372497787b35ceb49171f6a131ba77d1ae4332110af29d63c24846e1264d3b4ca61f6fd42b759d1d09c3dc331f73ebcd477f0182be9c6
c0ff0c48b49f7f33089b2a21279ca8a4912d63aba3d64266dd60d5e76b98a370478a87bc5b8e6cf9a88a9dcc70a8f794cf7d6691f26cb83b099e96849f672c35
94fab6a88c3a1cacf959dbdbcb8ecc1bd3129febb7f0bff9d9ef2c2ef5d073c7a88a9dcc70a8f794cf7d6691f26cb83b991121b3a00cfcee81575dfb1414da4b
5c2e262d493b312ff73e0c5051b95e15352d45f9e6d264a3ec673e334d6e7ccd24fdfd9bb2e10b07aac3c3d49c1f10a38e34f8e93d1dc0ff86d1fe90ee0fb01b
062e5f2e0baf1b674597b28a3abd988092d759dee944bb7666eaeb9fc4cc8ae1f44c2f0a39f04a1b0b4268ecbbe82783e71f71e1875841718a714abf7b7e82ff
61f0acdd6f1a2e9945cb00bd1bcc11355125dbca215ca0b078b54ce720b1001e7cdcf61de42ce3d848c4805203a5c137bdf1f1336938f33c5173c8d71b9c048c
23ee73d6065f3641cfa2b28727d5c31de42fea54b063b3ee644126c9831a96bd1feb131dde921c044c6ae17d6578e657922b97461f6f9a4b8c7b25dea69b5a72
b052355e65d40bda4d945ab16ce19c1cf94f38472446ffb0fb8da9eef24319c00f1c791017de1853e96826b1b8137c4aaac3c3d49c1f10a3c7b0a601e076b01e
f91e9969b8d0883b706b807646b80371333c4d9e04257e11ce5ec34e6f8ad1cae81a7567882b252c2f577adf585dc37a0a0b143a28001b257e81c9feb8e302c6
b2c0849db25c73cab5f1c17ee7956303115bf1810c118d7a74b125be7090c391faa740d6ca169787c15eead4d62e8162b83fbd7075f4787aa1522f9177a1c6ae
3bdfb3bcf8540f57c4a87854647e1c4d5d8a3d237bfb39ae1de333fbd2e0f35d115bf1810c118d7a74b125be7090c391faa740d6ca1697877c34cb0ab1675d95
102778d1f868b7a49e6b95464fb772f3f67259042900919200877b91cd4279f36d7feadbed3dd3e698f6b084c7382e21e71f71e1875841718a714abf7b7e82ff
fe9073afece57ff8706b807646b80371dacd9b8d1ddf22df8492e52ca9907137c32e32cca6618f9ff59c88a9d6b2d7841e60f03c8e7102bc06466a2582156171
6d35d8485846d699ff52696b9148915bd71b3c20a6a3ba7bf1874b03c1cd170d3164d407aed9992e388342345ed176d5ae96c1e4337e3bfa1863f3a09d19b7d9
6f9764b062a61846070ad78826a995de7ed21781f4e4eaa5fd50dbac40192720573a31f526586f9118cdefdf650ceff04d5b1b73307b1303c672f6aa553fc617
93d3808648446fd760c210771409cb2e6d636f62dc811967b531fdb8889633b4bf1ee911780421dd115bf1810c118d7a74b125be7090c39163d89b4f86c8a593
98b5f0d56fa7458642bc382e0980764215db70167d98c2c25c3ae979e1ff79c6390bfcc2028fb696eb49171f6a131ba77d1ae4332110af296fd12b81dce60d4a
b0eb42ca922cce592fbfcc2b872ff946c4e617f79c4322b4ce5ec34e6f8ad1ca4a00a148cfaed3410e1c6dbc21277e772594fc6756c8b3f583a3a146f650f598
39438c6af260813937080f586b2fbb9f644126c9831a96bd1feb131dde921c044c6ae17d6578e657922b97461f6f9a4b93722f5b6b5aa511d258390d59b8c5c5
3e2f6d3b6fa1f79ebdf1f1336938f33ca9e7655b8fc449e93783185f55829525b95a5f4268f7568b30c8392cdf5103ba5481fb0c7bf8bf2957117577032fd2aa
240cf6a83072ff1a78549b72707c86137ae4e90232dda0a599b87aceb23e86975bebda023e3dc91e2fd4a791317eac01eb49171f6a131ba7563b5b47dea31a11
311fb123761f1dd16510535aea7379d6a5443af3489cb383f6c57157062f5a991feb131dde921c044c6ae17d6578e657922b97461f6f9a4b8c7b25dea69b5a72
560bc4dfcba57a2c860341bb47536c89d3c6f4cd3b9e53669f7df7e1d853713798709113e7ea04d2b5f1c17ee7956303115bf1810c118d7a0b502028edaa199f
7aff1ed175018062a60fd3951de4fe946d636f62dc811967b727347f43209366ff52696b9148915bd71b3c20a6a3ba7bf1874b03c1cd170d55b192f958c15073
e0bee0f3fadd672460c210771409cb2e6d636f62dc811967f24bf58ddadd36c75fbceec05a2e4b3f7d7f15953a32e2dca88a9dcc70a8f79487308f746587c458
1fcbc249eb9471531e557f858edf41182c682323934db92088a0c478218f50e5a88a9dcc70a8f794cf7d6691f26cb83b991121b3a00cfcee81575dfb1414da4b
857620ce20ef86cb26c880f485e2ca34c2c08ae4637264e8ec673e334d6e7ccd24fdfd9bb2e10b07aac3c3d49c1f10a38e34f8e93d1dc0ff86d1fe90ee0fb01b
48a94d11d238250f77cd9ea1af4034c12d4f0e1d350677e080142fab6bccdafde9d7de4d831aeaf4644126c9831a96bd1feb131dde921c045a12492e398620b7
abc05a84349f7fe5429f077ac473616dfa6f00a025751d7534e8288ee6ff77aca88a9dcc70a8f794cf7d6691f26cb83b991121b3a00cfcee81575dfb1414da4b
62748d827ca277c7706b807646b8037142db3307ab4598a18492e52ca990713748a9367c0f462766fea6aa584ac92df0ab8764ef9c38dc8491f2ef43843ef758
7317072671eb21c1eb49171f6a131ba77d1ae4332110af29d63c24846e1264d3b4ca61f6fd42b759d1d09c3dc331f73ef79147b03e5c6356fa82e305cd70bb31
236e251679843c844b6fbc96d579bd7c99c91e8fcd10b990a88a9dcc70a8f794cf7d6691f26cb83b991121b3a00cfceeec0a90aea0c84e03a461e5f947a003a5
2f646e0e8d7ca9fb070ad78826a995de1de77509b23bc7edfd50dbac40192720e1d2c71e6b8dfe82fa4f8717ab5421a1b5f1c17ee795630331f1e0a88cf11194
e83d563d614d5ce9a2f169dd7cb883443c8ef4b29febaa997275fa4c800aa6ba042f0c0c78bb0debf52a8b5b00e8133a9aeb1939ea387dbf9a17d6bbed4ed979
5637fcfd860683a94597b28a3abd988081ac268b8da77ab9cb00bf3d5a22d2e3edf072078e52e442e82872fb501bac03eb49171f6a131ba7563b5b47dea31a11
705d459f50f7a08ca2f169dd7cb88344af02b8d90c64a20083463dd640f012e500d3e0b087c73744bdf1f1336938f33ca9e7655b8fc449e908fd7f55207401db
171d979aaf3d706b8036d105784414182421587c0f57824d5a959fcae03457aa8e4af6e8f6d9483ba88a9dcc70a8f794cf7d6691f26cb83b099e96849f672c35
86ad213343ec82a92c4cbab0291893203ce9cec0b01d2be1d52509d1cc72a26f23b782b3d6a37df1ff52696b9148915bd71b3c20a6a3ba7b8e7698d834c6978c
5ff44a992c4e2ee34048c26fb8ad2655f61d4c4b96454ab6b9b05017f728f49f9c6130a6298f9a49baa78b47fb353ab31feb131dde921c045a12492e398620b7
904e90e8e5b2fbfdb9d15c5be4e02d4918754e13dba8dbd33fcc20578536d17e644126c9831a96bd1feb131dde921c044c6ae17d6578e65795b60fc1542b238d
71dbbe87e53e082f26c6bc27a1cc562c4607f576c8c612d799448ccca394e5f7c2a465b43e329fcc5e907deffd12c5ffdd06c2baef735caed656dab8877def08
998fd920f4f159aa5510c65f94ec5b7bf52a8b5b00e8133a9aeb1939ea387dbf5841bbfacec96d79f3adc3ece7895ea2ec720c59607adeecdf4921589e4bda83
ca4b9342b86db891199f0c5f3309a3b8bdf1f1336938f33ca9e7655b8fc449e93783185f55829525b95a5f4268f7568b30c8392cdf5103ba898e830e9bccc23d
065d26286aaf2f12f45310c19b6b8ee57c32c1f0cf86ec68de2fe02acf381303042f0c0c78bb0debf52a8b5b00e8133a9aeb1939ea387dbf9a17d6bbed4ed979
717cdf892ff6b6ffa60fd3951de4fe94f62cc45356863029bf1ee911780421dd115bf1810c118d7a74b125be7090c391faa740d6ca1697877c34cb0ab1675d95
c9df73872fc60450f79767d8efdc77048036d10578441418c3b36018e345e16ead8125abe140c06ec95c6e3ee2b90bc6f52a8b5b00e8133a61cacbf1eaae8409
cf260434b9fe12d7706b807646b8037166e949d7f8ecde97763d55224b2c24e8dad4bb70f534f24cf52a8b5b00e8133a9aeb1939ea387dbf9a17d6bbed4ed979
32cd76a2a36328a9fea83f0b0b066fc26ffac99effdeec3407e4410295c646bcd4cea2580d7d395bf66536025bee576195e245e913fb67e2d38aff4e12555a5d
316c4e958281b8050abfc569c2f15564b686a80b117e185d78b54ce720b1001e5b9f79f666c8fe0048c4805203a5c137bdf1f1336938f33c5173c8d71b9c048c
bcd47878fdf46051706b807646b80371d9912f0ed63e5bff8492e52ca9907137c32e32cca6618f9f9fa6b642e2d18952979dbba800cff9b54049f3fd4cc90946
0bea72d0f2f0eb2f6bd8d7757d96eb93a88a9dcc70a8f794cf7d6691f26cb83b991121b3a00cfceeec0a90aea0c84e034c6320c4324e60e720bca4ea652791b1
3e2f6d3b6fa1f79ebdf1f1336938f33ca9e7655b8fc449e93783185f55829525b95a5f4268f7568b30c8392cdf5103ba5481fb0c7bf8bf2957117577032fd2aa
afe317ae10e9815545cb00bd1bcc1135dec8b062d0e05d598f6dd2193866e5229a5982dadb14b2811bed22bcf1a3040bff4ab1e2b51982fdbacb2cd8558a8a3b
d783e5d1b9d09e03dd06c2baef735cae36806a8e381bf9a01feb131dde921c044c6ae17d6578e657922b97461f6f9a4b93722f5b6b5aa511d258390d59b8c5c5
8767f397bff4c3a731bbfa71d5efb6fe825b843a3aa9ddcdbdf1f1336938f33ca9e7655b8fc449e93783185f55829525b95a5f4268f7568b7b266bd35c308fbb
8f10d309634521e54597b28a3abd98800f17e0b5097f93e984d278760384e50250932f91c29cb99b710f626c2faf14a6115bf1810c118d7a0b502028edaa199f
d674c3790d07122b1e557f858edf411873aac65b7e087d2935cddce08a7c8e49aad0cae5ebf3019a1feb131dde921c044c6ae17d6578e65795b60fc1542b238d
3b59b36ad64eb586089b2a21279ca8a4214c1f1a36eb83a5bfa5b5b47ce928f1478a87bc5b8e6cf9a88a9dcc70a8f794cf7d6691f26cb83b099e96849f672c35
f80a395284a571112fbfcc2b872ff946e00e80a1258e7bf6ce5ec34e6f8ad1cad1bf8be9994b864bce3a4b1bfd3e18fcf44496155f03ed4fa21fac39ee49d32b
2a76c18f665e8c272c4cbab029189320d042b92eba138a7c9f7df7e1d8537137dc26028ef70590f4b5f1c17ee7956303115bf1810c118d7a0b502028edaa199f
a3ce589fda26bc39706b807646b803712cb03a6bb748c07b8b28155138fe548a4ebedf1affe729ad710f626c2faf14a6115bf1810c118d7a0b502028edaa199f
44f945d11fc32323706b807646b80371b280954f47ecd1ab60b51f64d7f78a99b7fb991056f628821cb2dfc0f36100845911b2e9db277617789dfe9e3750721c
f448aa8b445158d3c55c8187f39b70be115bf1810c118d7a74b125be7090c391faa740d6ca169787c15eead4d62e8162b83fbd7075f4787aa1522f9177a1c6ae
4b6085f2012636678ee5eab1ce21437be7e129a8b28a870c0f090d5b577179621feb131dde921c044c6ae17d6578e657922b97461f6f9a4b8c7b25dea69b5a72
e9f419af62bfe95ebc27f931268b40618fa97f4081b734eb380523057ca53eeef182b98fc749cfc2ab6a91e907f651e20e0446bbe4cd6ef69d6bedf9d0034ac8
5d078000650a8fa54ef0dc8567d6d4ea1d8239f2d1a53635e60e6d4808ee42280794cbd97559f929f52a8b5b00e8133a9aeb1939ea387dbf9a17d6bbed4ed979
8df0563ff6b12bcb706b807646b80371c40db3808310b1468d5aa40cb2332d6f855e487a2800314b115bf1810c118d7a74b125be7090c39163d89b4f86c8a593
02dac6cba784505e706b807646b80371861b4b276dab09e144d489802dad2e3ac5ce994669c4ca88509d129435c4c61def1d7357d3c4e2f39d6bedf9d0034ac8
0be1bd08545f4ec3706b807646b803717ee185fad2d8da6d07a7115a301f151ceb49171f6a131ba77d1ae4332110af29d63c24846e1264d3d0a84b16b42dea59
faf38c75316d0585706b807646b803718695fa07f92b6e2b92051cc4bc5ab2f8a88a9dcc70a8f794cf7d6691f26cb83b991121b3a00cfcee81575dfb1414da4b
a5d158a0fc11634f706b807646b80371861b4b276dab09e1d15db477e5eff7e4644126c9831a96bd1feb131dde921c044c6ae17d6578e65795b60fc1542b238d
9e700d1bd10bd6d1706b807646b80371804d11ae975104d1cd101b2bcbb8a35ed1e4bc94207cac569c6130a6298f9a49baa78b47fb353ab38a714abf7b7e82ff
0a40497471b1851d706b807646b803711ead20a4f1f3c97eecd15350991019a34d21a90a6b40e90819cae7b0be1db121644126c9831a96bd8a714abf7b7e82ff
311fb123761f1dd1baaee1aa555dbec116b55fea61b7eb8cf8d00ce3fb64d7f5b3bd9ab9f8238a830fee3e18865f9b6fcf0952394ffc9076ecba730b22777eb1
25579814d5b934dff35bff9890f6b59ba88a9dcc70a8f794cf7d6691f26cb83b991121b3a00cfceeec0a90aea0c84e034c6320c4324e60e720bca4ea652791b1
643932098dbf1916e13f5e41f70fe60bb98507a1c3eb524af6c57157062f5a991feb131dde921c044c6ae17d6578e657922b97461f6f9a4b8c7b25dea69b5a72
e9f419af62bfe95edca29065f7b4a684f16ed6382d8f678e66eaeb9fc4cc8ae1a239406362ab41d498db71085172481b2c5148952770d95d8ee8483b4a87a0e9
e69a8acffc87bdc4481d97d0162ce919f6c57157062f5a991feb131dde921c044c6ae17d6578e657922b97461f6f9a4b93722f5b6b5aa511d258390d59b8c5c5
e2a940f3b8cefa37eb49171f6a131ba77d1ae4332110af29d63c24846e1264d3b4ca61f6fd42b759d1d09c3dc331f73ef79147b03e5c6356fa82e305cd70bb31
6dcc2999c2dfe559706b807646b8037133d7a29d0c0eba891d42454bf399468aeb49171f6a131ba77d1ae4332110af29d63c24846e1264d3d0a84b16b42dea59
e018450987109d3e706b807646b803712c8fce4fe11cffed06893d1f608340c31a57e3204fc8087fd1c2289b629e498c20fcb3273ffa61a988bd83521ee3fbb5
75963efd3ee34e16b032015482838020a88a9dcc70a8f794cf7d6691f26cb83b991121b3a00cfceeec0a90aea0c84e034c6320c4324e60e720bca4ea652791b1
bbf0a766f49a242c2637e9cac2aa5cea2cecad1ebf804c4bf467148f06ca8e43115bf1810c118d7a74b125be7090c391faa740d6ca1697877c34cb0ab1675d95
e9f419af62bfe95ec12e63f53fc8b6c7e7d4c42e71746eff69dd71b2b5a4100c870d2c9715a68798ea7bc7ccecd67a56bf1ee911780421dd31f1e0a88cf11194
0a74212461f65cb9c0313f4b89f5b9a390d894e2512433315b102e47ac4eb17ebdf1f1336938f33ca9e7655b8fc449e93783185f55829525d6ece55b0e80ab19
bc8ee2299b220803beda7935c8aeca8d90d894e251243331dc0745283a910a9df52a8b5b00e8133a9aeb1939ea387dbf5841bbfacec96d79ef73222bbef0a7bf
6bc6bcfc0cf717f3706b807646b80371a6796875edca394da980fb3fd7a177a4aad0cae5ebf3019a1feb131dde921c044c6ae17d6578e65795b60fc1542b238d
e9f419af62bfe95ee0f494962bc21b5f3738360b10239dfc1fd940dc18c72ebf02bddcffd186b8818ec6a98614dfbd6fa88a9dcc70a8f79487308f746587c458
9a0165ace85e8290d053aed4f7a0b1aee71f71e1875841711feb131dde921c044c6ae17d6578e657922b97461f6f9a4b93722f5b6b5aa511d258390d59b8c5c5
4130590ac940df72706b807646b8037112d5414bf961bf12c0bbe83b3fffa2d11698b44d876bafce81d89e1552d1863e2aa54f3b2849289a8e75c1b5a4d8f232
d2bbd7e847d638e1f9160e96a49a6a05115bf1810c118d7a74b125be7090c391faa740d6ca169787c15eead4d62e8162b83fbd7075f4787aa1522f9177a1c6ae
cdaa385411811e27bfd81d659a09e4b32637e9cac2aa5cea2cecad1ebf804c4bf467148f06ca8e43115bf1810c118d7a74b125be7090c39163d89b4f86c8a593
385bb969478bc1fd7509c136893a3e2e94193691b56f43268aac013a2ff8300ceb5ed70b759f10037003decd7bc2e4146f03fdb6c92924ab9fc311d43d1ceb29
87b83271a22a80b5aac3c3d49c1f10a38e34f8e93d1dc0ffe2d4024841d7523d7a062b1bf34857c8a426fefa5e1f3d7be4d6b95469c67a54efbafa480d906e20
6700a2a6ef06102539f254a10daf15d6ef05e0b458617e7314d02a9095d368138675a01b2db95be7bdf1f1336938f33ca9e7655b8fc449e908fd7f55207401db
f28257b2a3730294706b807646b80371861b4b276dab09e197987b17ecd08bbf644126c9831a96bd1feb131dde921c044c6ae17d6578e65795b60fc1542b238d
5aa875be979324eb706b807646b8037106893d1f608340c31325fee8f24ce546e71f71e1875841711feb131dde921c044c6ae17d6578e65795b60fc1542b238d
e9f419af62bfe95ecc0121b5e20e20768fa97f4081b734eba7cfcd18bd4e33ff9f7df7e1d8537137725f3942cf9af36879fa8bd2ed2304c365f1e288e0a9a70f
0a74212461f65cb9c0313f4b89f5b9a390d894e2512433315b102e47ac4eb17ebdf1f1336938f33ca9e7655b8fc449e93783185f55829525d6ece55b0e80ab19
bc8ee2299b220803beda7935c8aeca8d90d894e251243331dc0745283a910a9df52a8b5b00e8133a9aeb1939ea387dbf5841bbfacec96d79ef73222bbef0a7bf
54653036f112a7e5706b807646b803712d7f20e5a60456a312d228206cc2517b4d116a9d75a1ee1523b782b3d6a37df1ff52696b9148915be32182617922991f
2671091ba70d1568706b807646b803714a52d78971abcf576a08153f6e8baec5a3565990d5f42d7f2c68a96754ea25e58dcea2cdd2d3d5ccd573267e41263c5c
dd06c2baef735cae2b1410deca799d73eb49171f6a131ba77d1ae4332110af29d63c24846e1264d3b4ca61f6fd42b759d1d09c3dc331f73ebcd477f0182be9c6
4b6085f2012636675a0aa31c52cddba976617f42cd5d956b1feb131dde921c044c6ae17d6578e657922b97461f6f9a4b93722f5b6b5aa511d258390d59b8c5c5
69ff18044fae7c89706b807646b80371686f14ac68dae5882a8378a97f3dbc4ca88a9dcc70a8f794cf7d6691f26cb83b991121b3a00cfcee81575dfb1414da4b
07b8b607253a07a2706b807646b80371e00f6ba94ccb4f0f3ebc1fe92a4361c378b54ce720b1001e182e21f53447aa58f68fa22228a305e8d38aff4e12555a5d
615a28c46d723740a2f169dd7cb88344d1eba1bd85eddbc90a0ec22218277ba4bf1ee911780421dd115bf1810c118d7a74b125be7090c39163d89b4f86c8a593
bedb4c285028d38910a5fcbe7a8691e3083ee8af2c4e47f9b4da617ea7d06be89e92269ee3608b324d5b1b73307b1303aac3c3d49c1f10a3c7b0a601e076b01e
9afa1f10a7f457ea64b4cb8e83300d9cd91a71f8ed5e51de86707e28cae807f207519d1cb35cd113f52a8b5b00e8133a9aeb1939ea387dbf9a17d6bbed4ed979
4036fe3bb1fccadc4597b28a3abd98805ef3ef533a15cc147b5e5851cdbf553c9fab86307c0ae4a671215797a21db4f2644126c9831a96bd8a714abf7b7e82ff
635adb6c201b6ba1860341bb47536c890e05fd4a829e892b9176245ac7882cb8478a87bc5b8e6cf9a88a9dcc70a8f794cf7d6691f26cb83b099e96849f672c35
b90e0c5fe970b38760c210771409cb2e9bb70e3b41a50c4a51785ede25309db7eff1ef0305927f232aa542088768718dcd906585811797c70130cfae1ca1fecc
2e781867abaac5ce4597b28a3abd9880f33bae58ba3ea356353b1c9441624db19c6130a6298f9a49baa78b47fb353ab31feb131dde921c045a12492e398620b7
04f5acd939422ec02fbfcc2b872ff9463bd3da828a87f528ce5ec34e6f8ad1ca6e02cd619ff2cf87d82cd2fae38596b4dcd0c890a99377dc1af7aece1e7aed96
4aadbb34bb5babb8a88a9dcc70a8f794cf7d6691f26cb83b991121b3a00cfceeec0a90aea0c84e034c6320c4324e60e74d1e63ead7c006adb8f0b33b827298a2
fce32b9a46bbe77af8e018261c6aad4f2c1a517dfbbaea57abcd459548d990c6e71f71e1875841711feb131dde921c044c6ae17d6578e65795b60fc1542b238d
2cfd781695004e381c153b8c4356dd6ca8b96c3c9f181909c9dde8922616697f0505f7aa172b925f86c1381f519db5d44569f5a7e2bd20a90fc3c0e717fabefb
60bf34609ef78774ed8ce2e705c14ecf1feb131dde921c044c6ae17d6578e657922b97461f6f9a4b93722f5b6b5aa511fad49c5252c3eacc16f62a3c39d6522c
5b7d7f52b30d4437d374836f86ef7970629d3e26bc37836368d4c1c796503f3a32490602cfdaddbbaf786b4a9526bec3f79ed346fe02bf5d8a714abf7b7e82ff
$CDNENCFINISH
.ENDS  TLV75801P_TRANS
*$
.subckt TLV75801P_S2 1 2 3 4  
$CDNENCSTART
eee8c5c7a2bc4b01f045f303678664e7916da0bae22e8cb0bba041dd67c69ce448ea70148a9ac1670c8926c1ac5057c8ccfcd77bf87ca9dc31f1e0a88cf11194
c21144fd15b2c61331820e631d1d1d7423f284e2e346bfb8a88a9dcc70a8f794cf7d6691f26cb83b991121b3a00cfceeec0a90aea0c84e03a461e5f947a003a5
e07b7a6acd4bf43c6f31076d2b37e96baa35006d782c6ce9bdf1f1336938f33ca9e7655b8fc449e93783185f55829525b95a5f4268f7568b7b266bd35c308fbb
1e7e75f62a07f7b1bbcb463bf6330e44eff574bcdcb677aa0ffb76e2ddf4497b184d8190fada24a98f182a59499ce64056d61c3bc288fdfa0f6691c12875d46b
$CDNENCFINISH
.ends TLV75801P_S2
*$
.subckt TLV75801P_S3 1 2 3 4  
$CDNENCSTART
eee8c5c7a2bc4b01f045f303678664e7916da0bae22e8cb0bba041dd67c69ce448ea70148a9ac1670c8926c1ac5057c8ccfcd77bf87ca9dc31f1e0a88cf11194
49437a5c2c000e5531820e631d1d1d7451c16968e1146dc5a88a9dcc70a8f794cf7d6691f26cb83b991121b3a00cfceeec0a90aea0c84e03a461e5f947a003a5
196545b3a77859896f31076d2b37e96baa35006d782c6ce9bdf1f1336938f33ca9e7655b8fc449e93783185f55829525b95a5f4268f7568b7b266bd35c308fbb
1e7e75f62a07f7b1bbcb463bf6330e449fca2d09a1602b870ffb76e2ddf4497bc57cfae156c3adf48e5e1fe45d9e77f1e95ccae7279650a8d3b55e518a88efc0
$CDNENCFINISH
.ends TLV75801P_S3
*$
.subckt TLV75801P_S1 1 2 3 4  
$CDNENCSTART
eee8c5c7a2bc4b01f045f303678664e7916da0bae22e8cb0bba041dd67c69ce448ea70148a9ac1670c8926c1ac5057c8ccfcd77bf87ca9dc31f1e0a88cf11194
44f117741689d59131820e631d1d1d749e35700c7913e939a88a9dcc70a8f794cf7d6691f26cb83b991121b3a00cfceeec0a90aea0c84e03a461e5f947a003a5
3c76beba9b808c126f31076d2b37e96baa35006d782c6ce9bdf1f1336938f33ca9e7655b8fc449e93783185f55829525b95a5f4268f7568b7b266bd35c308fbb
1e7e75f62a07f7b1bbcb463bf6330e447b3ba2fd65dbf9050ffb76e2ddf4497bc57cfae156c3adf48e5e1fe45d9e77f1e95ccae7279650a8d3b55e518a88efc0
$CDNENCFINISH
.ends TLV75801P_S1
*$
.subckt TLV75801P_H2 1 2 3 4  
$CDNENCSTART
eee8c5c7a2bc4b01f045f303678664e7916da0bae22e8cb0bba041dd67c69ce448ea70148a9ac1670c8926c1ac5057c8ccfcd77bf87ca9dc31f1e0a88cf11194
a2c6d4276581f43b31820e631d1d1d74e2b5c77e8ecaba96a88a9dcc70a8f794cf7d6691f26cb83b991121b3a00cfceeec0a90aea0c84e03a461e5f947a003a5
9c9fc54f66c2cffa6f31076d2b37e96b3a7bc5327c69eeafbdf1f1336938f33ca9e7655b8fc449e93783185f55829525b95a5f4268f7568b7b266bd35c308fbb
$CDNENCFINISH
.ends TLV75801P_H2
*$
.subckt TLV75801P_F1 1 2 3 4  
$CDNENCSTART
eee8c5c7a2bc4b01f045f303678664e7916da0bae22e8cb0bba041dd67c69ce448ea70148a9ac1670c8926c1ac5057c8ccfcd77bf87ca9dc31f1e0a88cf11194
ae601cf82fbefc0c31820e631d1d1d74872d6da6e74e75eea88a9dcc70a8f794cf7d6691f26cb83b991121b3a00cfceeec0a90aea0c84e03a461e5f947a003a5
969b68e4450fa8bd6f31076d2b37e96b3a7bc5327c69eeafbdf1f1336938f33ca9e7655b8fc449e93783185f55829525b95a5f4268f7568b7b266bd35c308fbb
$CDNENCFINISH
.ends TLV75801P_F1
*$
.SUBCKT COMPHYS_BASIC_GEN INP INM HYS OUT PARAMS: VDD=1 VSS=0 VTHRESH=0.5	
$CDNENCSTART
eee8c5c7a2bc4b01f045f303678664e7916da0bae22e8cb0bba041dd67c69ce448ea70148a9ac1670c8926c1ac5057c8ccfcd77bf87ca9dc31f1e0a88cf11194
9132b7121104d4358be44c41ab888f41b6e3a1568843d867a88a9dcc70a8f794cf7d6691f26cb83b991121b3a00cfceeec0a90aea0c84e03a461e5f947a003a5
70d49a25931fcad5af5f0f227a33dfc56b574213c15e8d8904d73209bd6cb354e07469d76c73f504727902e71a3e75d8bb77e20fe987edd8d38aff4e12555a5d
d1579de13894cc53749d13634498f34b2814ec203481f38f6485690991963efc688dc2cfc32ec3a9609956094a2f05290f82827fc36822f0a21fac39ee49d32b
c985c90e830fff9457e2c5aa80851370115bf1810c118d7a74b125be7090c391faa740d6ca169787c15eead4d62e8162b83fbd7075f4787aa1522f9177a1c6ae
1fdb31c906bbcd7763285b29082243911feb131dde921c044c6ae17d6578e657922b97461f6f9a4b93722f5b6b5aa511fad49c5252c3eacc16f62a3c39d6522c
13142c038a62aa150aa66cfdd7abddd7eb49171f6a131ba77d1ae4332110af29d63c24846e1264d3b4ca61f6fd42b759d1d09c3dc331f73ebcd477f0182be9c6
$CDNENCFINISH
.ENDS COMPHYS_BASIC_GEN
*$
.SUBCKT D_D1 1 2
$CDNENCSTART
eee8c5c7a2bc4b01f045f303678664e7916da0bae22e8cb0bba041dd67c69ce448ea70148a9ac1670c8926c1ac5057c8ccfcd77bf87ca9dc31f1e0a88cf11194
b3390a098a7d87064e46dd92806239d2115bf1810c118d7a74b125be7090c391faa740d6ca169787c15eead4d62e8162b83fbd7075f4787aa1522f9177a1c6ae
d7072740a938f0e752008c48b90a111404d36cec99b77dc0a7f03d1e581742ea8b798ad314fde7ff78bb0ee6e0e668e4f52a8b5b00e8133a61cacbf1eaae8409
$CDNENCFINISH
.ENDS D_D1
*$
.SUBCKT BUF_DELAY_BASIC_GEN A  Y PARAMS: VDD=1 VSS=0 VTHRESH=0.5 DELAY = 10n 
$CDNENCSTART
eee8c5c7a2bc4b01f045f303678664e7916da0bae22e8cb0bba041dd67c69ce448ea70148a9ac1670c8926c1ac5057c8ccfcd77bf87ca9dc31f1e0a88cf11194
f305b7cfa0765161b7a8d0a5fa27600f87c337a6226f9c259ce2376dcef929e055e2d3dce1717d717ca80a2ba8175d7ecf49909a32f1b23e65f1e288e0a9a70f
7e21bb79cbca9f8ce0c67063107b52eba88a9dcc70a8f794cf7d6691f26cb83b991121b3a00cfceeec0a90aea0c84e034c6320c4324e60e720bca4ea652791b1
bd9831b9881f0b92004c220067cfdabf57e2c5aa80851370115bf1810c118d7a74b125be7090c391faa740d6ca169787c15eead4d62e8162dad0e4a044ca8426
99cb3fa3ad4040ee39d350e60ca2338a43558a6d1f49bc89a88a9dcc70a8f794cf7d6691f26cb83b991121b3a00cfceeec0a90aea0c84e03a461e5f947a003a5
f305b7cfa0765161c36180965553170d8da13727b91264449ce2376dcef929e07d4a1829490ab8db9b0e7c0027d2abb9e6efecb6122f9b38d38aff4e12555a5d
7e21bb79cbca9f8ce0c67063107b52eba88a9dcc70a8f794cf7d6691f26cb83b991121b3a00cfceeec0a90aea0c84e034c6320c4324e60e720bca4ea652791b1
8d3568177ac8ace9a0338d780f826fc6eb49171f6a131ba77d1ae4332110af29d63c24846e1264d3b4ca61f6fd42b759d1d09c3dc331f73ebcd477f0182be9c6
042d1e8ae349b80f5801d29f353ff668bdf1f1336938f33ca9e7655b8fc449e93783185f55829525b95a5f4268f7568b30c8392cdf5103ba898e830e9bccc23d
$CDNENCFINISH
.ENDS BUF_DELAY_BASIC_GEN
*$
.SUBCKT AND2_BASIC_GEN A B Y PARAMS: VDD=1 VSS=0 VTHRESH=0.5 

$CDNENCSTART
eee8c5c7a2bc4b01f045f303678664e7916da0bae22e8cb0bba041dd67c69ce448ea70148a9ac1670c8926c1ac5057c8ccfcd77bf87ca9dc31f1e0a88cf11194
f305b7cfa07651615a9037c8c42a602b94aebb18efc1b73c4a0534bc16c6b751d67091752c09698a1541fe9d381cc675621f57e8bf9b586e65f1e288e0a9a70f

ce312808b0a91175dcf306adebf133c01a6c7500361cb5a45652e10015a645e7e71f71e1875841711feb131dde921c044c6ae17d6578e65795b60fc1542b238d

bd9831b9881f0b92e8f02e93fcf213a8f52a8b5b00e8133a9aeb1939ea387dbf5841bbfacec96d79f3adc3ece7895ea2ec720c59607adeecdf4921589e4bda83

02f2959404528fbd9ad2dc2e0af5de0eaac3c3d49c1f10a38e34f8e93d1dc0ffe2d4024841d7523d7a062b1bf34857c8a426fefa5e1f3d7b3ba16eff8d9e8dcc

$CDNENCFINISH
.ENDS AND2_BASIC_GEN

*$
.SUBCKT SRLATCHRHP_BASIC_GEN S R Q QB PARAMS: VDD=1 VSS=0 VTHRESH=0.5  
$CDNENCSTART
eee8c5c7a2bc4b01f045f303678664e7916da0bae22e8cb0bba041dd67c69ce448ea70148a9ac1670c8926c1ac5057c8ccfcd77bf87ca9dc31f1e0a88cf11194
08e147163f37b483eb1553db51121b0af03ffeaf6f4cc2495403a992dada814087dbbe4c721b28118ac3abcaf6d8f63e75c06ff6952a82ffe54dea19fa791efd
030b252e024c556cff52696b9148915bd71b3c20a6a3ba7bf1874b03c1cd170d3164d407aed9992e388342345ed176d5ae96c1e4337e3bfa1863f3a09d19b7d9
a405048fcac30c1a77b95916f96d463ba88a9dcc70a8f794cf7d6691f26cb83b991121b3a00cfceeec0a90aea0c84e034c6320c4324e60e720bca4ea652791b1
b75a50bb44e3b503f2667b5cb330c5cf7d9a27b91a009a4af52a8b5b00e8133a9aeb1939ea387dbf5841bbfacec96d79f3adc3ece7895ea2d449949bcade0c04
1033be605ac86fd802147ff4d5c4cb2f4f8181b227c1b6b5bdf1f1336938f33ca9e7655b8fc449e93783185f55829525b95a5f4268f7568b7b266bd35c308fbb
4d7ee7dde33e9387d311a5de088d45a5eb49171f6a131ba77d1ae4332110af29d63c24846e1264d3b4ca61f6fd42b759d1d09c3dc331f73ebcd477f0182be9c6
df95d7fdcea3a2180d504e4cc1a75a093ae2468b9ecaccb9ff52696b9148915bd71b3c20a6a3ba7bf1874b03c1cd170d3164d407aed9992e3538c0256d1bd487
193c989aae9fedb66f74756715268570bf1ee911780421dd115bf1810c118d7a74b125be7090c391faa740d6ca169787c15eead4d62e8162dad0e4a044ca8426
99fafaa2580fb990086c1f20d6d180eb303d7240d8c3139d115bf1810c118d7a74b125be7090c391faa740d6ca169787c15eead4d62e8162dad0e4a044ca8426
b8c0b98b8ee14d0e86fb6fea0644b392d2bbd7e847d638e1e776e9b255bda08c858b231094abeea61f9a9c561ad56bf1e3c1957d735cf1403eb0abf7d3e723a6
5c58db27c3805ea579ec59d2010a8d85aac3c3d49c1f10a38e34f8e93d1dc0ffe2d4024841d7523d7a062b1bf34857c8a426fefa5e1f3d7b3ba16eff8d9e8dcc
7e2980978c86958c5a2203ebe700ca12ff52696b9148915bd71b3c20a6a3ba7bf1874b03c1cd170d3164d407aed9992e388342345ed176d56595cd3e8933ae0f
161224ee3eeadb9c8492e52ca99071370aa8feaa9dcff1516e87bca1c6f42fe3e8a5dce5e40df7ad937cd11398766dd32a641aaab1b9ab44a21fac39ee49d32b
04db544825bf7de1ee259b687a060a57ff52696b9148915bd71b3c20a6a3ba7bf1874b03c1cd170d3164d407aed9992e388342345ed176d56595cd3e8933ae0f
97c9333151ea8fa7c28a4c769cde9ef7a88a9dcc70a8f794cf7d6691f26cb83b991121b3a00cfceeec0a90aea0c84e034c6320c4324e60e720bca4ea652791b1
8f7b8724f31a9e8c1250a7e9a95e2aa3a88a9dcc70a8f794cf7d6691f26cb83b991121b3a00cfceeec0a90aea0c84e034c6320c4324e60e720bca4ea652791b1
cb3de6a18d5d6014b511a41d3b9c21e6608e5066341ff6bd115bf1810c118d7a74b125be7090c391faa740d6ca169787c15eead4d62e8162dad0e4a044ca8426
d7072740a938f0e76796778f313a81b5bcf1ee82bdd45fd86d0ad17b3ef49a3d2ed4e03f3e56f24b8cef131fcf4336b7ff52696b9148915be32182617922991f
$CDNENCFINISH
.ENDS SRLATCHRHP_BASIC_GEN 
*$
.SUBCKT BUF_BASIC_GEN A  Y PARAMS: VDD=1 VSS=0 VTHRESH=0.5  
$CDNENCSTART
eee8c5c7a2bc4b01f045f303678664e7916da0bae22e8cb0bba041dd67c69ce448ea70148a9ac1670c8926c1ac5057c8ccfcd77bf87ca9dc31f1e0a88cf11194
f305b7cfa07651615a9037c8c42a602b94aebb18efc1b73c4a0534bc16c6b751d67091752c09698a1541fe9d381cc675a36c87e87e29573113519a8a855bad68
608e5066341ff6bd115bf1810c118d7a74b125be7090c391faa740d6ca169787c15eead4d62e8162b83fbd7075f4787a55a5f706abd8ccec5c01981d9aab4166
bd9831b9881f0b921b3d46da13888b1eff52696b9148915bd71b3c20a6a3ba7bf1874b03c1cd170d3164d407aed9992e388342345ed176d56595cd3e8933ae0f
02f2959404528fbd5dd00b2186f9e93dbdf1f1336938f33ca9e7655b8fc449e93783185f55829525b95a5f4268f7568b30c8392cdf5103ba898e830e9bccc23d
$CDNENCFINISH
.ENDS BUF_BASIC_GEN 
*$
.SUBCKT INV_DELAY_BASIC_GEN A  Y PARAMS: VDD=1 VSS=0 VTHRESH=0.5 DELAY = 10n  
$CDNENCSTART
eee8c5c7a2bc4b01f045f303678664e7916da0bae22e8cb0bba041dd67c69ce448ea70148a9ac1670c8926c1ac5057c8ccfcd77bf87ca9dc31f1e0a88cf11194
f305b7cfa0765161b7a8d0a5fa27600f87c337a6226f9c259ce2376dcef929e055e2d3dce1717d717ca80a2ba8175d7e413573ed95ba9f7070f497b56ae5be13
1eb5da1b1b220fdbbdf1f1336938f33ca9e7655b8fc449e93783185f55829525b95a5f4268f7568b30c8392cdf5103ba5481fb0c7bf8bf2957117577032fd2aa
bd9831b9881f0b92004c220067cfdabf680d2d7c8463c02aaac3c3d49c1f10a38e34f8e93d1dc0ffe2d4024841d7523d7a062b1bf34857c8752b00b837d14140
99cb3fa3ad4040ee39d350e60ca2338a85bb0abd135c8ea4b2c8ac76a93edd4caac3c3d49c1f10a38e34f8e93d1dc0ffe2d4024841d7523d27dbcefd750090f0
f305b7cfa0765161c36180965553170d8da13727b91264449ce2376dcef929e07d4a1829490ab8db9b0e7c0027d2abb96587de49e2c863ff5e776786199801a3
f477875b6b57c386a88a9dcc70a8f794cf7d6691f26cb83b991121b3a00cfceeec0a90aea0c84e034c6320c4324e60e74d1e63ead7c006adb8f0b33b827298a2
8d3568177ac8ace91f72e5a2e8c9f624a88a9dcc70a8f794cf7d6691f26cb83b991121b3a00cfceeec0a90aea0c84e034c6320c4324e60e720bca4ea652791b1
042d1e8ae349b80fea1cd9c752f58bf3f52a8b5b00e8133a9aeb1939ea387dbf5841bbfacec96d79f3adc3ece7895ea2ec720c59607adeecdf4921589e4bda83
$CDNENCFINISH
.ENDS INV_DELAY_BASIC_GEN 
*$
.subckt zx 1 2 3 4 5
$CDNENCSTART
eee8c5c7a2bc4b01f045f303678664e7916da0bae22e8cb0bba041dd67c69ce448ea70148a9ac1670c8926c1ac5057c8ccfcd77bf87ca9dc31f1e0a88cf11194
b6d5b66f8b4b5cf5995173ffa2c92685fe0ee20d803d68fea521d13c841eb6f03f0bb91cb2b56deca88a9dcc70a8f794cf7d6691f26cb83b099e96849f672c35
8ea6da70e16040ae7d85def2175d53d9afede746215e6972aac3c3d49c1f10a38e34f8e93d1dc0ffe2d4024841d7523d7a062b1bf34857c8752b00b837d14140
423567d797b12d728884162488a37977f52a8b5b00e8133a9aeb1939ea387dbf5841bbfacec96d79f3adc3ece7895ea2ec720c59607adeecdf4921589e4bda83
4224ba0683c7aee525d36cd23bc3bcb1bdf1f1336938f33ca9e7655b8fc449e93783185f55829525b95a5f4268f7568b30c8392cdf5103ba898e830e9bccc23d
$CDNENCFINISH
.ends zx
*$
.SUBCKT INV_BASIC_GEN A  Y PARAMS: VDD=1 VSS=0 VTHRESH=0.5 
$CDNENCSTART
eee8c5c7a2bc4b01f045f303678664e7916da0bae22e8cb0bba041dd67c69ce448ea70148a9ac1670c8926c1ac5057c8ccfcd77bf87ca9dc31f1e0a88cf11194
f305b7cfa07651615a9037c8c42a602b94aebb18efc1b73c4a0534bc16c6b751d67091752c09698a1541fe9d381cc675040397452ddd041531f1e0a88cf11194